*Heading
** Job name: mesh-input Model name: Model-1
** Generated by: Abaqus/CAE Student Edition 2017
*Preprint, echo=NO, model=NO, history=NO, contact=NO
**
** PARTS
**
*Part, name=Part-1
*Node
      1,           0.,           0.
      2,          2.5,           0.
      3,           5.,           0.
      4,          7.5,           0.
      5,          10.,           0.
      6,         12.5,           0.
      7,          15.,           0.
      8,         17.5,           0.
      9,          20.,           0.
     10,         22.5,           0.
     11,          25.,           0.
     12,         27.5,           0.
     13,          30.,           0.
     14,         32.5,           0.
     15,          35.,           0.
     16,         37.5,           0.
     17,          40.,           0.
     18,         42.5,           0.
     19,          45.,           0.
     20,         47.5,           0.
** ... 421 like lines cut
*Element, type=CPS4R
  1,   1,   2,  23,  22
  2,   2,   3,  24,  23
  3,   3,   4,  25,  24
  4,   4,   5,  26,  25
  5,   5,   6,  27,  26
  6,   6,   7,  28,  27
  7,   7,   8,  29,  28
  8,   8,   9,  30,  29
  9,   9,  10,  31,  30
 10,  10,  11,  32,  31
 11,  11,  12,  33,  32
 12,  12,  13,  34,  33
 13,  13,  14,  35,  34
 14,  14,  15,  36,  35
 15,  15,  16,  37,  36
 16,  16,  17,  38,  37
 17,  17,  18,  39,  38
 18,  18,  19,  40,  39
 19,  19,  20,  41,  40
 20,  20,  21,  42,  41
** ... 380 like lines cut
*Nset, nset=Set-1, generate
   1,  441,    1
*Elset, elset=Set-1, generate
   1,  400,    1
** Section: Section-1
*Solid Section, elset=Set-1, material=Material-1
,
*End Part
**  
**
** ASSEMBLY
**
*Assembly, name=Assembly
**  
*Instance, name=Part-1-1, part=Part-1
*End Instance
**  
*End Assembly
** 
** MATERIALS
** 
*Material, name=Material-1
*Elastic
 2.1e+08, 0.3
